"""
Incorporates the new C1-C5 mechanism by Henry Curran with few corrections by WJP
Incorporates the updated IC8, NC7 mechs
Incorporates the 1 & 2-pentene, 1, 2 & 3-hexene mechs
Incorporates the latest changes in Toluene (Seshadri Flame)

1387 Species, 5739 Reactions


"""

units(length='cm', time='s', quantity='mol', act_energy='cal/mol')

ideal_gas(name='gas',
          elements="C H N O Ar He Ne",
          species="""C5H82OOH4-5     C5H92O2-4       C5H91O2-3
                     C5H91O2-4       C5H91O2-5       C5H81OOH3-4
                     C5H81OOH3-5     C5H81OOH4-3     C5H81OOH4-5
                     C5H81OOH5-4     C5H81OOH5-3     C5H92O2-1
                     C5H81OOH3-4O2   C5H81OOH3-5O2   C5H82OOH4-5O2
                     NC5D1KET45      NC5D1KET35      NC5D2KET45
                     CY3C5H8O        NC5D1KET34      H
                     H2              O               O2
                     OH              H2O             N2
                     HO2             H2O2            CO
                     CO2             CH2O            HCO
                     HO2CHO          O2CHO           HOCHO
                     OCHO            CH3OH           CH2OH
                     CH3O            CH3O2H          CH3O2
                     CH4             CH3             CH2
                     CH2(S)          CH              C2H6
                     C2H5            C2H4            C2H3
                     C2H2            C2H             CH3CHO
                     CH3CO           CH2CHO          CH2CO
                     HCCO            CH3CO3H         CH3CO3
                     CH3CO2          C2H5OH          C2H5O
                     PC2H4OH         SC2H4OH         C2H5O2H
                     C2H3O1-2        CH3COCH3        CH3COCH2
                     CH3COCH2O2      CH3COCH2O2H     CH3COCH2O
                     C2H3CHO         C2H3CO          C2H5CHO
                     C2H5CO          CH3OCO          IC3H7
                     NC3H7           C3H6            C3H5-A
                     C3H5-S          C3H5-T          C3H4-P
                     C3H4-A          C3H3            C3H2
                     C3H5O           C3H6OOH1-2      C3H6OOH1-3
                     C3H6OOH2-1      C3H6OOH1-2O2    C3H6OOH1-3O2
                     C3H6OOH2-1O2    IC3H7O2H        NC3H7O2
                     IC3H7O          C3KET13         C3H51-2,3OOH
                     C3H6OH          HOC3H6O2        CH3CHCO
                     AC3H5OOH        C4H8-1          C4H8-2
                     PC4H9           C4H71-1         C4H71-3
                     C4H71-4         C4H72-2         C4H6
                     PC4H9O2         PC4H8OH         C4H8OH-1O2
                     C4H8OOH1-3      C4H8OOH1-3O2    NC4KET13
                     C2H5COCH3       C2H5COCH2       CH2CH2COCH3
                     NC3H7CHO        NC3H7CO         IC4H9
                     TC4H9           IC4H8           IC4H7
                     TC4H9O2         IC4H8O2H-T      IC4H8O
                     TC4H9O          TC4H9O2H        IC4H7O
                     IC4H8OH         IO2C4H8OH       IC3H7CHO
                     TC3H6CHO        IC3H7CO         IC4H7OH
                     IC4H6OH         IC3H5CHO        IC3H5CO
                     IC3H6CO         IC4H7OOH        TC3H6O2CHO
                     IC3H5O2HCHO     CH2CCH2OH       C5H11-1
                     C5H10-1         C5H10-2         C5H81-3
                     C5H91-3         C5H91-4         C5H92-4
                     C5H10OH-2       O2C5H10OH-2     C6H13-1
                     C6H12-1         NC4H9CHO        NC4H9CO
                     NC3H7COCH2      NC7H16          C7H15-1
                     C7H15-2         C7H15-3         C7H15-4
                     C7H14-1         C7H14-2         C7H14-3
                     C7H131-3        C7H133-6        C7H15O2-1
                     C7H15O2-2       C7H15O2-3       C7H15O2-4
                     C7H15O2H-3      C7H15O-3        C7H14OOH1-3
                     C7H14OOH1-4     C7H14OOH2-4     C7H14OOH2-5
                     C7H14OOH3-2     C7H14OOH3-4     C7H14OOH3-5
                     C7H14OOH4-1     C7H14OOH4-2     C7H14OOH4-3
                     C7H14OOH1-3O2   C7H14OOH2-4O2   C7H14OOH3-2O2
                     C7H14OOH3-4O2   C7H14OOH3-5O2   C7H14OOH4-2O2
                     C7H14OOH4-3O2   C7H14O1-3       C7H14O1-4
                     C7H14O2-4       C7H14O2-5       C7H14O3-5
                     NC7KET13        NC7KET24        NC7KET32
                     NC7KET34        NC7KET35        NC7KET42
                     NC7KET43        C5H9OOH1-4      C5H9O1-4
                     BC5H11          CC5H11          AC5H10
                     BC5H10          CC5H10          AC5H9-C
                     CC5H9-B         CH3CHCHO        BC6H12
                     CC6H12          CC6H11-B        IC4H7-I1
                     YC7H15          ZC7H15          XC7H14
                     YC7H14          XC7H13-Z        YC7H13-X2
                     XC7H13O-Z       ACC6H10         ACC6H9-A
                     ACC6H9-D        NEOC5H11        NEOC5H11O2
                     NEOC5H10OOH     NEOC5H10OOH-O2  NEOC5H9Q2-N
                     NEOC5KET        NEOC5KETOX      TC4H9CHO
                     TC4H9CO         C4H7CHO2-2      C4H6CHO2-24
                     PC7H15          IC8H18          AC8H17
                     BC8H17          CC8H17          DC8H17
                     IC8H16          JC8H16          IC8H15
                     AC8H17O2        BC8H17O2        CC8H17O2
                     DC8H17O2        AC8H17O2H       CC8H17O2H
                     DC8H17O2H       AC8H17O         CC8H17O
                     AC8H16OOH-A     AC8H16OOH-B     AC8H16OOH-C
                     BC8H16OOH-C     BC8H16OOH-A     BC8H16OOH-D
                     CC8H16OOH-B     CC8H16OOH-A     DC8H16OOH-C
                     DC8H16OOH-B     IC8ETERAA       IC8ETERAB
                     IC8ETERAC       IC8ETERBD       AC8H16OOH-BO2
                     BC8H16OOH-CO2   BC8H16OOH-AO2   BC8H16OOH-DO2
                     DC8H16OOH-BO2   IC8KETAB        IC8KETBA
                     IC8KETBC        IC8KETBD        IC8KETDB
                     IC3H7COC3H6-T   TC4H9COC2H4S    XC7H13OOH-Z
                     YC7H13OOH-X2    YC7H13O-X2      C6H5CH3
                     C6H5CH2J        OC6H4CH3        HOC6H4CH3
                     OC6H4O          RODC6JDO        OXCCXCCJXO
                     C6H5OH          STYR            CYPDONE
                     HCOCJXO         OXCCXCCXO       C6H5CH2OJ
                     C6H5CH2OH       C6H5CHO         C6H4OH
                     C6H6            C6H5OJ          CJXCCXO
                     C6H5            C6H4CH3         C6H5CJO
                     O2C6H4CH3       RODC6J(C)DO     OCCXCCXCJC""",
          reactions='all',
          initial_state=state(temperature=300.0, pressure=OneAtm))

#-------------------------------------------------------------------------------
# Species data
#-------------------------------------------------------------------------------

species(name='C5H82OOH4-5',
        atoms='C:5 H:9 O:2',
        thermo=(NASA([300.00, 1390.00],
                     [ 1.18933757E-01,  7.22182336E-02, -6.26961874E-05,
                       3.02365253E-08, -6.22604558E-12,  6.52705862E+03,
                       3.25216068E+01]),
                NASA([1390.00, 5000.00],
                     [ 2.02523998E+01,  2.00480932E-02, -6.98766359E-06,
                       1.09864079E-09, -6.43037097E-14, -1.31625148E+02,
                      -7.41522425E+01])),
        note='THERM')

species(name='C5H92O2-4',
        atoms='C:5 H:9 O:2',
        thermo=(NASA([300.00, 1386.00],
                     [ 3.18610663E-01,  6.78136369E-02, -5.66246486E-05,
                       2.72493859E-08, -5.74187777E-12, -1.23570314E+03,
                       2.94582683E+01]),
                NASA([1386.00, 5000.00],
                     [ 1.87422756E+01,  2.13380683E-02, -7.43357984E-06,
                       1.16828688E-09, -6.83588686E-14, -7.53062379E+03,
                      -6.87417351E+01])),
        note='THERM')

species(name='C5H91O2-3',
        atoms='C:5 H:9 O:2',
        thermo=(NASA([300.00, 1391.00],
                     [-2.53047986E-01,  7.17170741E-02, -6.28709092E-05,
                       3.12576670E-08, -6.63106571E-12,  2.88340699E+02,
                       3.22165449E+01]),
                NASA([1391.00, 5000.00],
                     [ 1.86702210E+01,  2.16216768E-02, -7.48512415E-06,
                       1.17139079E-09, -6.83358511E-14, -5.93460409E+03,
                      -6.77963649E+01])),
        note='2/27/9THERM')

species(name='C5H91O2-4',
        atoms='C:5 H:9 O:2',
        thermo=(NASA([300.00, 1391.00],
                     [ 2.74057663E-01,  6.87408230E-02, -5.82859938E-05,
                       2.83025767E-08, -5.93926717E-12, -2.89952131E+02,
                       3.01634067E+01]),
                NASA([1391.00, 5000.00],
                     [ 1.84021744E+01,  2.17923554E-02, -7.53113607E-06,
                       1.17721317E-09, -6.86192272E-14, -6.34714408E+03,
                      -6.60002048E+01])),
        note='2/27/9THERM')

species(name='C5H91O2-5',
        atoms='C:5 H:9 O:2',
        thermo=(NASA([300.00, 1388.00],
                     [ 9.21739143E-01,  6.37906593E-02, -5.04570120E-05,
                       2.34857821E-08, -4.89322617E-12,  1.77578588E+03,
                       2.73168166E+01]),
                NASA([1388.00, 5000.00],
                     [ 1.77874223E+01,  2.23672091E-02, -7.74125889E-06,
                       1.21125611E-09, -7.06521652E-14, -4.10679893E+03,
                      -6.29884685E+01])),
        note='2/27/9THERM')

species(name='C5H81OOH3-4',
        atoms='C:5 H:9 O:2',
        thermo=(NASA([300.00, 1387.00],
                     [-9.44363745E-02,  7.09624905E-02, -5.86674926E-05,
                       2.64204994E-08, -5.10119323E-12,  6.76331529E+03,
                       3.42041622E+01]),
                NASA([1387.00, 5000.00],
                     [ 2.04736244E+01,  1.93718338E-02, -6.65285950E-06,
                       1.03631449E-09, -6.02831329E-14, -9.24476640E+01,
                      -7.51661905E+01])),
        note='THERM')

species(name='C5H81OOH3-5',
        atoms='C:5 H:9 O:2',
        thermo=(NASA([300.00, 1391.00],
                     [-4.40047221E-01,  7.58841583E-02, -6.82061813E-05,
                       3.35416275E-08, -6.93546245E-12,  8.05263098E+03,
                       3.52486149E+01]),
                NASA([1391.00, 5000.00],
                     [ 2.07195327E+01,  1.96364025E-02, -6.84241764E-06,
                       1.07563823E-09, -6.29511640E-14,  1.21256506E+03,
                      -7.63306272E+01])),
        note='THERM')

species(name='C5H81OOH4-3',
        atoms='C:5 H:9 O:2',
        thermo=(NASA([300.00, 1395.00],
                     [-1.67661475E+00,  8.24234752E-02, -7.68911795E-05,
                       3.84407281E-08, -7.93788392E-12,  1.18799098E+03,
                       3.72297107E+01]),
                NASA([1395.00, 5000.00],
                     [ 2.13003585E+01,  1.95078183E-02, -6.78481644E-06,
                       1.06526973E-09, -6.22918022E-14, -6.02235562E+03,
                      -8.32206597E+01])),
        note='THERM')

species(name='C5H81OOH4-5',
        atoms='C:5 H:9 O:2',
        thermo=(NASA([300.00, 1392.00],
                     [-1.90211140E-01,  7.41006114E-02, -6.52281489E-05,
                       3.15250295E-08, -6.44648819E-12,  7.51643191E+03,
                       3.44831723E+01]),
                NASA([1392.00, 5000.00],
                     [ 2.05400792E+01,  1.97587133E-02, -6.87784366E-06,
                       1.08045541E-09, -6.32025760E-14,  7.50807906E+02,
                      -7.50802789E+01])),
        note='THERM')

species(name='C5H81OOH5-4',
        atoms='C:5 H:9 O:2',
        thermo=(NASA([300.00, 1378.00],
                     [ 1.09414103E+00,  6.27017387E-02, -4.51647776E-05,
                       1.75376064E-08, -3.02857853E-12,  8.25392695E+03,
                       2.99803474E+01]),
                NASA([1378.00, 5000.00],
                     [ 1.99797637E+01,  1.94783902E-02, -6.63044969E-06,
                       1.02741023E-09, -5.95687008E-14,  1.58966896E+03,
                      -7.18324539E+01])),
        note='THERM')

species(name='C5H81OOH5-3',
        atoms='C:5 H:9 O:2',
        thermo=(NASA([300.00, 1392.00],
                     [-1.03448784E+00,  7.74990249E-02, -6.91145381E-05,
                       3.36697622E-08, -6.90531183E-12,  3.25462042E+03,
                       3.44090499E+01]),
                NASA([1392.00, 5000.00],
                     [ 2.06841270E+01,  2.00877308E-02, -6.99755273E-06,
                       1.09981315E-09, -6.43576906E-14, -3.78298669E+03,
                      -8.02037762E+01])),
        note='THERM')

species(name='C5H92O2-1',
        atoms='C:5 H:9 O:2',
        thermo=(NASA([300.00, 1382.00],
                     [ 2.79456975E+00,  5.43545166E-02, -3.62886545E-05,
                       1.47860541E-08, -2.98145081E-12,  7.37651210E+02,
                       1.82377389E+01]),
                NASA([1382.00, 5000.00],
                     [ 1.73081531E+01,  2.28361563E-02, -7.91701528E-06,
                       1.24017112E-09, -7.23964243E-14, -4.76360673E+03,
                      -6.09843435E+01])),
        note='2/27/9THERM')

species(name='C5H81OOH3-4O2',
        atoms='C:5 H:9 O:4',
        thermo=(NASA([300.00, 1391.00],
                     [-3.75602022E-02,  9.11870163E-02, -8.81884381E-05,
                       4.56881967E-08, -9.71673614E-12, -1.24322423E+04,
                       3.60029421E+01]),
                NASA([1391.00, 5000.00],
                     [ 2.51899540E+01,  2.06629888E-02, -7.23143253E-06,
                       1.14009288E-09, -6.68582448E-14, -2.02817609E+04,
                      -9.58762133E+01])),
        note='THERM')

species(name='C5H81OOH3-5O2',
        atoms='C:5 H:9 O:4',
        thermo=(NASA([300.00, 1388.00],
                     [ 7.94715585E-01,  8.56255432E-02, -7.95943015E-05,
                       4.04572741E-08, -8.58957746E-12, -1.04003503E+04,
                       3.18522030E+01]),
                NASA([1388.00, 5000.00],
                     [ 2.45930237E+01,  2.12211773E-02, -7.43558644E-06,
                       1.17319038E-09, -6.88358634E-14, -1.80397550E+04,
                      -9.33490594E+01])),
        note='THERM')

species(name='C5H82OOH4-5O2',
        atoms='C:5 H:9 O:4',
        thermo=(NASA([300.00, 1385.00],
                     [ 1.32904454E+00,  8.19166968E-02, -7.35515380E-05,
                       3.64696631E-08, -7.67622962E-12, -1.19208413E+04,
                       2.92601845E+01]),
                NASA([1385.00, 5000.00],
                     [ 2.47038351E+01,  2.08612744E-02, -7.34831615E-06,
                       1.16354536E-09, -6.84394748E-14, -1.96404151E+04,
                      -9.44868694E+01])),
        note='THERM')

species(name='NC5D1KET45',
        atoms='C:5 H:8 O:3',
        thermo=(NASA([300.00, 1385.00],
                     [ 1.21668059E+00,  7.15787275E-02, -6.30509999E-05,
                       3.10064445E-08, -6.52729436E-12, -3.08106662E+04,
                       2.67891442E+01]),
                NASA([1385.00, 5000.00],
                     [ 2.14757522E+01,  1.92472750E-02, -6.76598303E-06,
                       1.06986594E-09, -6.28685877E-14, -3.75729212E+04,
                      -8.06939017E+01])),
        note='3/2/9THERM')

species(name='NC5D1KET35',
        atoms='C:5 H:8 O:3',
        thermo=(NASA([300.00, 1385.00],
                     [ 1.21668059E+00,  7.15787275E-02, -6.30509999E-05,
                       3.10064445E-08, -6.52729436E-12, -3.08106662E+04,
                       2.67891442E+01]),
                NASA([1385.00, 5000.00],
                     [ 2.14757522E+01,  1.92472750E-02, -6.76598303E-06,
                       1.06986594E-09, -6.28685877E-14, -3.75729212E+04,
                      -8.06939017E+01])),
        note='3/2/9THERM')

species(name='NC5D2KET45',
        atoms='C:5 H:8 O:3',
        thermo=(NASA([300.00, 1379.00],
                     [ 3.17853589E+00,  6.17225314E-02, -4.82161831E-05,
                       2.18620918E-08, -4.50957236E-12, -3.16101167E+04,
                       1.66641470E+01]),
                NASA([1379.00, 5000.00],
                     [ 2.09987749E+01,  1.97036451E-02, -6.93515196E-06,
                       1.09752667E-09, -6.45309266E-14, -3.79773185E+04,
                      -7.93350370E+01])),
        note='THERM')

species(name='CY3C5H8O',
        atoms='C:5 H:8 O:1',
        thermo=(NASA([300.00, 1402.00],
                     [-4.48111210E+00,  7.71764930E-02, -7.09850627E-05,
                       3.47224927E-08, -6.97929363E-12, -3.90800756E+03,
                       4.63284004E+01]),
                NASA([1402.00, 5000.00],
                     [ 1.67912845E+01,  1.86881223E-02, -6.41180595E-06,
                       9.97554346E-10, -5.79620662E-14, -1.04892507E+04,
                      -6.49719230E+01])),
        note='3/2/9THERM')

species(name='NC5D1KET34',
        atoms='C:5 H:8 O:3',
        thermo=(NASA([300.00, 1385.00],
                     [ 1.21668059E+00,  7.15787275E-02, -6.30509999E-05,
                       3.10064445E-08, -6.52729436E-12, -3.08106662E+04,
                       2.67891442E+01]),
                NASA([1385.00, 5000.00],
                     [ 2.14757522E+01,  1.92472750E-02, -6.76598303E-06,
                       1.06986594E-09, -6.28685877E-14, -3.75729212E+04,
                      -8.06939017E+01])),
        note='3/2/9THERM')

species(name='H',
        atoms='H:1',
        thermo=(NASA([300.00, 1000.00],
                     [ 2.50000000E+00, -1.56525602E-16,  4.56943616E-19,
                      -5.17814989E-22,  1.99020834E-25,  2.54716300E+04,
                      -4.60117600E-01]),
                NASA([1000.00, 5000.00],
                     [ 2.50000000E+00,  0.00000000E+00,  0.00000000E+00,
                       0.00000000E+00,  0.00000000E+00,  2.54716300E+04,
                      -4.60117600E-01])),
        note='120186')

species(name='H2',
        atoms='H:2',
        thermo=(NASA([300.00, 1000.00],
                     [ 3.29811315E+00,  8.25027139E-04, -8.14520679E-07,
                      -9.45156024E-11,  4.13396280E-13, -1.01251994E+03,
                      -3.29404908E+00]),
                NASA([1000.00, 5000.00],
                     [ 2.99142300E+00,  7.00064400E-04, -5.63382900E-08,
                      -9.23157800E-12,  1.58275200E-15, -8.35034190E+02,
                      -1.35511168E+00])),
        note='121286')

species(name='O',
        atoms='O:1',
        thermo=(NASA([300.00, 1000.00],
                     [ 2.97581049E+00, -1.86651355E-03,  3.03910699E-06,
                      -2.29798169E-09,  6.65098598E-13,  2.91448120E+04,
                       2.84279748E+00]),
                NASA([1000.00, 5000.00],
                     [ 2.54206000E+00, -2.75506200E-05, -3.10280300E-09,
                       4.55106700E-12, -4.36805200E-16,  2.92306248E+04,
                       4.92005460E+00])),
        note='120186')

species(name='O2',
        atoms='O:2',
        thermo=(NASA([300.00, 1000.00],
                     [ 3.21292096E+00,  1.12760043E-03, -5.75915362E-07,
                       1.31420113E-09, -8.76977274E-13, -1.00524753E+03,
                       6.03480032E+00]),
                NASA([1000.00, 5000.00],
                     [ 3.69757800E+00,  6.13519700E-04, -1.25884200E-07,
                       1.77528100E-11, -1.13643500E-15, -1.23393069E+03,
                       3.18916245E+00])),
        note='121386')

species(name='OH',
        atoms='H:1 O:1',
        thermo=(NASA([300.00, 1710.00],
                     [ 3.38802488E+00,  5.13134076E-04, -6.91562406E-07,
                       6.58925834E-10, -1.76513215E-13,  3.45609135E+03,
                       2.67738152E+00]),
                NASA([1710.00, 5000.00],
                     [ 2.85376040E+00,  1.02994334E-03, -2.32666477E-07,
                       1.93750704E-11, -3.15759847E-16,  3.70108053E+03,
                       5.78923151E+00])),
        note='7/13/0RUCIC')

species(name='H2O',
        atoms='H:2 O:1',
        thermo=(NASA([300.00, 1000.00],
                     [ 3.38683369E+00,  3.47504664E-03, -6.35487110E-06,
                       6.96877813E-09, -2.50666637E-12, -3.02081092E+04,
                       2.59026729E+00]),
                NASA([1000.00, 5000.00],
                     [ 2.67214600E+00,  3.05629300E-03, -8.73026000E-07,
                       1.20099600E-10, -6.39161800E-15, -2.98992117E+04,
                       6.86281017E+00])),
        note='20387')

species(name='N2',
        atoms='N:2',
        thermo=(NASA([300.00, 1000.00],
                     [ 3.29864759E+00,  1.40846282E-03, -3.96380347E-06,
                       5.64213732E-09, -2.44508631E-12, -1.02089712E+03,
                       3.95049394E+00]),
                NASA([1000.00, 5000.00],
                     [ 2.92664000E+00,  1.48797700E-03, -5.68476100E-07,
                       1.00970400E-10, -6.75335100E-15, -9.22797271E+02,
                       5.98052586E+00])),
        note='121286')

species(name='HO2',
        atoms='H:1 O:2',
        thermo=(NASA([200.00, 1000.00],
                     [ 3.92960049E+00, -1.60830209E-03,  1.18727670E-05,
                      -1.30037956E-08,  4.53655859E-12,  3.28184607E+02,
                       5.22337662E+00]),
                NASA([1000.00, 3500.00],
                     [ 4.01721090E+00,  2.23982013E-03, -6.33658150E-07,
                       1.14246370E-10, -1.07908535E-14,  1.15280867E+02,
                       3.78743242E+00])),
        note='L5/89')

species(name='H2O2',
        atoms='H:2 O:2',
        thermo=(NASA([300.00, 1000.00],
                     [ 3.11532390E+00,  8.69428832E-03, -5.90052057E-06,
                       1.84346899E-09, -9.73727788E-14, -1.76368322E+04,
                       7.91325037E+00]),
                NASA([1000.00, 5000.00],
                     [ 4.57316700E+00,  4.33613600E-03, -1.47468900E-06,
                       2.34890400E-10, -1.43165400E-14, -1.80053429E+04,
                       5.03492308E-01])),
        note='120186')

species(name='CO',
        atoms='C:1 O:1',
        thermo=(NASA([300.00, 1429.00],
                     [ 3.18682930E+00,  9.18151981E-04, -8.47850061E-08,
                      -5.87250064E-11,  1.04168933E-14, -1.42865286E+04,
                       5.34778618E+00]),
                NASA([1429.00, 5000.00],
                     [ 3.11216890E+00,  1.15948283E-03, -3.38480362E-07,
                       4.41403098E-11, -2.12862228E-15, -1.42717592E+04,
                       5.71736238E+00])),
        note='29/11/04')

species(name='CO2',
        atoms='C:1 O:2',
        thermo=(NASA([300.00, 1380.00],
                     [ 2.51696404E+00,  8.67129636E-03, -7.38200235E-06,
                       3.40545865E-09, -6.77482061E-13, -4.84096978E+04,
                       9.07542912E+00]),
                NASA([1380.00, 5000.00],
                     [ 5.18953018E+00,  2.06006476E-03, -7.33575324E-07,
                       1.17004374E-10, -6.91729215E-15, -4.93164363E+04,
                      -5.18115185E+00])),
        note='29/11/04')

species(name='CH2O',
        atoms='C:1 H:2 O:1',
        thermo=(NASA([300.00, 1486.00],
                     [ 3.03886921E+00,  2.84013619E-03,  5.69702470E-06,
                      -5.50042612E-09,  1.38197399E-12, -1.41222130E+04,
                       7.96779716E+00]),
                NASA([1486.00, 5000.00],
                     [ 4.02068394E+00,  5.09903417E-03, -1.76430480E-06,
                       2.76025879E-10, -1.60998042E-14, -1.49296973E+04,
                       1.06414682E+00])),
        note='6/29/04RUSCI')

species(name='HCO',
        atoms='C:1 H:1 O:1',
        thermo=(NASA([300.00, 1690.00],
                     [ 3.87671666E+00,  3.96492239E-04,  3.96142834E-06,
                      -3.03796277E-09,  6.75166549E-13,  4.03124140E+03,
                       4.66388476E+00]),
                NASA([1690.00, 5000.00],
                     [ 3.44148164E+00,  3.52157719E-03, -1.24136118E-06,
                       1.97328644E-10, -1.16538616E-14,  3.97083215E+03,
                       6.24248541E+00])),
        note='29/11/04')

species(name='HO2CHO',
        atoms='C:1 H:2 O:3',
        thermo=(NASA([300.00, 1378.00],
                     [ 2.30993845E+00,  2.27520996E-02, -1.86301166E-05,
                       7.84096336E-09, -1.40195372E-12, -3.54706885E+04,
                       1.79885254E+01]),
                NASA([1378.00, 5000.00],
                     [ 9.87503878E+00,  4.64663708E-03, -1.67230522E-06,
                       2.68624413E-10, -1.59595232E-14, -3.80475829E+04,
                      -2.24907293E+01])),
        note='6/26/95THERM')

species(name='O2CHO',
        atoms='C:1 H:1 O:3',
        thermo=(NASA([300.00, 1368.00],
                     [ 3.84093331E+00,  1.14177741E-02, -7.10584404E-06,
                       2.69099769E-09, -5.49614938E-13, -1.73473277E+04,
                       1.22871806E+01]),
                NASA([1368.00, 5000.00],
                     [ 7.24075139E+00,  4.63312951E-03, -1.63693995E-06,
                       2.59706693E-10, -1.52964699E-14, -1.87000559E+04,
                      -6.49222543E+00])),
        note='6/26/95THERM')

species(name='HOCHO',
        atoms='C:1 H:2 O:2',
        thermo=(NASA([300.00, 1419.00],
                     [ 1.34816409E+00,  1.48344243E-02, -4.63612884E-06,
                      -2.11623844E-09,  1.08211259E-12, -4.64419321E+04,
                       1.80278515E+01]),
                NASA([1419.00, 5000.00],
                     [ 7.67134440E+00,  4.43426373E-03, -1.60867436E-06,
                       2.59770020E-10, -1.54899704E-14, -4.89726233E+04,
                      -1.73045040E+01])),
        note='9/27/5THERM')

species(name='OCHO',
        atoms='C:1 H:1 O:2',
        thermo=(NASA([300.00, 1412.00],
                     [ 1.47907629E+00,  1.19486543E-02, -4.54849371E-06,
                      -1.02451572E-09,  7.05585826E-13, -1.62095053E+04,
                       1.78326327E+01]),
                NASA([1412.00, 5000.00],
                     [ 6.49815560E+00,  3.22319012E-03, -1.17099595E-06,
                       1.89272918E-10, -1.12937000E-14, -1.81691586E+04,
                      -1.00427386E+01])),
        note='9/27/5THERM')

species(name='CH3OH',
        atoms='C:1 H:4 O:1',
        thermo=(NASA([300.00, 1985.00],
                     [ 1.64996062E+00,  1.33518509E-02, -4.57272686E-06,
                       1.84359884E-10,  1.36321613E-13, -2.52024329E+04,
                       1.55564695E+01]),
                NASA([1985.00, 5000.00],
                     [ 3.92867513E+00,  9.81626074E-03, -3.40615476E-06,
                       5.35510197E-10, -3.13776029E-14, -2.61308676E+04,
                       2.70861457E+00])),
        note='2/25/4THERM')

species(name='CH2OH',
        atoms='C:1 H:3 O:1',
        thermo=(NASA([300.00, 1399.00],
                     [ 2.94484843E+00,  1.26912398E-02, -1.04156560E-05,
                       5.33388230E-09, -1.18309939E-12, -2.81953935E+03,
                       9.46315339E+00]),
                NASA([1399.00, 5000.00],
                     [ 5.41875913E+00,  5.66185244E-03, -1.87471136E-06,
                       2.84441938E-10, -1.62299798E-14, -3.61199031E+03,
                      -3.48950862E+00])),
        note='2/25/4THERM')

species(name='CH3O',
        atoms='C:1 H:3 O:1',
        thermo=(NASA([300.00, 1509.00],
                     [ 2.24864959E+00,  8.41300168E-03,  1.27504747E-06,
                      -3.62413984E-09,  1.05609968E-12,  9.43986564E+02,
                       1.27607249E+01]),
                NASA([1509.00, 5000.00],
                     [ 4.64787019E+00,  6.90830683E-03, -2.34404776E-06,
                       3.61994570E-10, -2.09253541E-14, -2.99800016E+02,
                      -1.57807107E+00])),
        note='8/9/4THERM')

species(name='CH3O2H',
        atoms='C:1 H:4 O:2',
        thermo=(NASA([300.00, 1367.00],
                     [ 2.66671678E+00,  1.97856373E-02, -1.11419389E-05,
                       3.41356401E-09, -5.78597787E-13, -1.73852430E+04,
                       1.23375119E+01]),
                NASA([1367.00, 5000.00],
                     [ 8.80409289E+00,  8.09427218E-03, -2.85843274E-06,
                       4.53369754E-10, -2.66980707E-14, -1.98473301E+04,
                      -2.16953953E+01])),
        note='1/14/5THERM')

species(name='CH3O2',
        atoms='C:1 H:3 O:2',
        thermo=(NASA([300.00, 1365.00],
                     [ 3.62039503E+00,  1.10700463E-02, -3.24881644E-06,
                       3.60855701E-10, -1.64555663E-13, -4.36184692E+02,
                       8.59895725E+00]),
                NASA([1365.00, 5000.00],
                     [ 6.34718801E+00,  7.92089358E-03, -2.76601913E-06,
                       4.35360631E-10, -2.54984762E-14, -1.83022111E+03,
                      -7.42055241E+00])),
        note='1/14/5THERM')

species(name='CH4',
        atoms='C:1 H:4',
        thermo=(NASA([300.00, 1462.00],
                     [ 3.83834781E+00, -3.28307658E-03,  2.07206585E-05,
                      -1.61507985E-08,  3.86958551E-12, -1.01549788E+04,
                       7.29203364E-01]),
                NASA([1462.00, 5000.00],
                     [ 4.09617653E+00,  7.44330845E-03, -2.63871900E-06,
                       4.19577604E-10, -2.47508050E-14, -1.13869791E+04,